Circuit: * C:\users\agustincampenyscolari\Desktop\Diseño\Spice\power_supply_v2.asc

.OP point found by inspection.

Date: Wed May 20 18:59:16 2020
Total elapsed time: 3.307 seconds.

tnom = 27
temp = 27
method = modified trap
totiter = 6704
traniter = 6704
tranpoints = 2461
accept = 2035
rejected = 426
matrix size = 224
fillins = 327
solver = Normal
Thread vector: 88.2/40.4[4] 45.1/19.4[4] 129.4/9.6[4] 5.8/6.3[1]  2592/500
Matrix Compiler1: 55.91 KB object code size  25.4/23.9/[13.2]
Matrix Compiler2: 30.71 KB object code size  8.2/24.4/[5.9]

